[General]
network = SPLITQUEUE
sim-time-limit = 3600s 
**.interarrivalRate=exponential(2)
*.server1.serviceTime=exponential(3)
*.server2.serviceTime=exponential(1)
*.server3.serviceTime=exponential(2)
**.splitProb=0.55